
     RDKit          3D

 63 67  0  0  0  0  0  0  0  0999 V2000
   31.1048   -0.1899   28.0388 C   0  0  1  0  0  0  0  0  0  0  0  0
   29.7768    0.7245   27.2031 S   0  0  0  0  0  0  0  0  0  0  0  0
   28.4973   -0.5004   27.3678 C   0  0  0  0  0  0  0  0  0  0  0  0
   27.1687   -0.0803   27.2023 C   0  0  0  0  0  0  0  0  0  0  0  0
   26.1224   -0.9914   27.3335 C   0  0  0  0  0  0  0  0  0  0  0  0
   24.8244   -0.5636   27.1730 O   0  0  0  0  0  0  0  0  0  0  0  0
   26.3763   -2.3255   27.6275 C   0  0  0  0  0  0  0  0  0  0  0  0
   27.6946   -2.7485   27.7841 C   0  0  0  0  0  0  0  0  0  0  0  0
   28.7600   -1.8464   27.6483 C   0  0  0  0  0  0  0  0  0  0  0  0
   29.9940   -2.4143   27.8053 O   0  0  0  0  0  0  0  0  0  0  0  0
   31.1827   -1.6497   27.5398 C   0  0  1  0  0  0  0  0  0  0  0  0
   24.2304   -1.3238   27.2979 H   0  0  0  0  0  0  0  0  0  0  0  0
   36.0015    2.5589   27.9669 O   0  0  0  0  0  0  0  0  0  0  0  0
   34.8014    1.8859   27.9760 C   0  0  0  0  0  0  0  0  0  0  0  0
   34.5164    1.0459   29.0610 C   0  0  0  0  0  0  0  0  0  0  0  0
   33.3097    0.3478   29.0887 C   0  0  0  0  0  0  0  0  0  0  0  0
   32.4083    0.5235   28.0361 C   0  0  0  0  0  0  0  0  0  0  0  0
   32.7120    1.3714   26.9606 C   0  0  0  0  0  0  0  0  0  0  0  0
   33.9193    2.0836   26.8962 C   0  0  0  0  0  0  0  0  0  0  0  0
   36.0497    3.0947   27.1564 H   0  0  0  0  0  0  0  0  0  0  0  0
   31.7002   -1.8966   26.1689 C   0  0  0  0  0  0  0  0  0  0  0  0
   32.6498   -2.9112   25.9876 C   0  0  0  0  0  0  0  0  0  0  0  0
   33.1556   -3.1562   24.7115 C   0  0  0  0  0  0  0  0  0  0  0  0
   32.6824   -2.3902   23.6433 C   0  0  0  0  0  0  0  0  0  0  0  0
   31.7294   -1.3810   23.8463 C   0  0  0  0  0  0  0  0  0  0  0  0
   31.2042   -1.1021   25.1173 C   0  0  0  0  0  0  0  0  0  0  0  0
   33.1476   -2.6157   22.3682 O   0  0  0  0  0  0  0  0  0  0  0  0
   33.6854   -3.9216   22.2418 C   0  0  0  0  0  0  0  0  0  0  0  0
   33.4693   -4.3924   20.8076 C   0  0  0  0  0  0  0  0  0  0  0  0
   33.4804   -3.2454   19.8723 N   0  0  0  0  0  4  0  0  0  0  0  0
   34.8686   -2.9192   19.3627 C   0  0  0  0  0  0  0  0  0  0  0  0
   34.8121   -1.6715   18.4924 C   0  0  0  0  0  0  0  0  0  0  0  0
   33.8183   -1.8243   17.3475 C   0  0  0  0  0  0  0  0  0  0  0  0
   32.4412   -2.2192   17.8664 C   0  0  0  0  0  0  0  0  0  0  0  0
   32.5043   -3.4661   18.7356 C   0  0  0  0  0  0  0  0  0  0  0  0
   33.1444   -2.4272   20.3989 H   0  0  0  0  0  0  0  0  0  0  0  0
   30.8381   -0.2423   29.1047 H   0  0  0  0  0  0  0  0  0  0  0  0
   26.9522    0.9724   26.9681 H   0  0  0  0  0  0  0  0  0  0  0  0
   25.5463   -3.0393   27.7353 H   0  0  0  0  0  0  0  0  0  0  0  0
   27.9024   -3.8032   28.0172 H   0  0  0  0  0  0  0  0  0  0  0  0
   31.9949   -2.0294   28.1771 H   0  0  0  0  0  0  0  0  0  0  0  0
   35.2385    0.9382   29.8838 H   0  0  0  0  0  0  0  0  0  0  0  0
   33.0721   -0.3282   29.9233 H   0  0  0  0  0  0  0  0  0  0  0  0
   31.9828    1.4811   26.1444 H   0  0  0  0  0  0  0  0  0  0  0  0
   34.1609    2.7526   26.0571 H   0  0  0  0  0  0  0  0  0  0  0  0
   32.9932   -3.5092   26.8446 H   0  0  0  0  0  0  0  0  0  0  0  0
   33.9126   -3.9376   24.5490 H   0  0  0  0  0  0  0  0  0  0  0  0
   31.3839   -0.7913   22.9844 H   0  0  0  0  0  0  0  0  0  0  0  0
   30.4541   -0.3144   25.2815 H   0  0  0  0  0  0  0  0  0  0  0  0
   34.7615   -3.9042   22.4693 H   0  0  0  0  0  0  0  0  0  0  0  0
   33.1871   -4.6060   22.9442 H   0  0  0  0  0  0  0  0  0  0  0  0
   34.2733   -5.0907   20.5319 H   0  0  0  0  0  0  0  0  0  0  0  0
   32.4911   -4.8913   20.7432 H   0  0  0  0  0  0  0  0  0  0  0  0
   35.5394   -2.7405   20.2160 H   0  0  0  0  0  0  0  0  0  0  0  0
   35.2474   -3.7633   18.7676 H   0  0  0  0  0  0  0  0  0  0  0  0
   34.5093   -0.8166   19.1149 H   0  0  0  0  0  0  0  0  0  0  0  0
   35.8105   -1.5114   18.0593 H   0  0  0  0  0  0  0  0  0  0  0  0
   33.7392   -0.8677   16.8102 H   0  0  0  0  0  0  0  0  0  0  0  0
   34.1789   -2.6165   16.6749 H   0  0  0  0  0  0  0  0  0  0  0  0
   32.0333   -1.3894   18.4623 H   0  0  0  0  0  0  0  0  0  0  0  0
   31.7978   -2.4364   17.0011 H   0  0  0  0  0  0  0  0  0  0  0  0
   31.5058   -3.6767   19.1464 H   0  0  0  0  0  0  0  0  0  0  0  0
   32.8399   -4.3186   18.1268 H   0  0  0  0  0  0  0  0  0  0  0  0
  1 17  1  0
  1  2  1  0
  2  3  1  0
  3  4  2  0
  4  5  1  0
  5  6  1  0
  5  7  2  0
  6 12  1  0
  7  8  1  0
  8  9  2  0
  9 10  1  0
  9  3  1  0
 10 11  1  0
 11 21  1  0
 11  1  1  0
 13 14  1  0
 13 20  1  0
 14 15  2  0
 15 16  1  0
 16 17  2  0
 17 18  1  0
 18 19  2  0
 19 14  1  0
 21 22  2  0
 22 23  1  0
 23 24  2  0
 24 27  1  0
 24 25  1  0
 25 26  2  0
 26 21  1  0
 27 28  1  0
 28 29  1  0
 29 30  1  0
 30 31  1  0
 30 36  1  0
 31 32  1  0
 32 33  1  0
 33 34  1  0
 34 35  1  0
 35 30  1  0
  1 37  1  1
  4 38  1  0
  7 39  1  0
  8 40  1  0
 11 41  1  1
 15 42  1  0
 16 43  1  0
 18 44  1  0
 19 45  1  0
 22 46  1  0
 23 47  1  0
 25 48  1  0
 26 49  1  0
 28 50  1  0
 28 51  1  0
 29 52  1  0
 29 53  1  0
 31 54  1  0
 31 55  1  0
 32 56  1  0
 32 57  1  0
 33 58  1  0
 33 59  1  0
 34 60  1  0
 34 61  1  0
 35 62  1  0
 35 63  1  0
M  CHG  1  30   1
M  END
>  <minimizedAffinity>  (1) 
-12.22471

>  <CNNscore>  (1) 
0.9830145836

>  <CNNaffinity>  (1) 
8.4029960632

>  <CNN_VS>  (1) 
8.2602672577

>  <CNNaffinity_variance>  (1) 
0.4278099537

$$$$
